Version 4
SHEET 1 1780 680
WIRE 544 -784 -528 -784
WIRE 688 -784 640 -784
WIRE 912 -784 688 -784
WIRE 912 -736 912 -784
WIRE -528 -544 -528 -784
WIRE -128 -544 -528 -544
WIRE -48 -528 -64 -528
WIRE 272 -528 -48 -528
WIRE -160 -512 -192 -512
WIRE -128 -512 -160 -512
WIRE -160 -448 -160 -512
WIRE -48 -448 -160 -448
WIRE 688 -256 688 -784
WIRE 272 -192 272 -528
WIRE 464 -192 272 -192
WIRE 464 -176 368 -176
WIRE 640 -176 608 -176
WIRE 128 -160 112 -160
WIRE 256 -160 208 -160
WIRE 608 -144 608 -176
WIRE 608 -144 528 -144
WIRE -528 -96 -528 -544
WIRE -128 -96 -528 -96
WIRE -48 -80 -64 -80
WIRE 16 -80 -48 -80
WIRE 112 -80 112 -160
WIRE 112 -80 96 -80
WIRE 128 -80 112 -80
WIRE -160 -64 -192 -64
WIRE -128 -64 -160 -64
WIRE 256 -64 256 -160
WIRE 256 -64 192 -64
WIRE 368 -64 368 -176
WIRE 368 -64 256 -64
WIRE -528 -32 -528 -96
WIRE -528 -16 -528 -32
WIRE -160 0 -160 -64
WIRE -48 0 -160 0
FLAG 400 208 +5
FLAG 496 208 -5
FLAG -96 -48 -5
FLAG -96 -112 +5
FLAG 400 288 0
FLAG 496 288 0
FLAG -96 -496 -5
FLAG -96 -560 +5
FLAG -528 64 0
FLAG -528 -32 inp
FLAG 608 -176 norm
FLAG -192 -352 0
FLAG -192 96 0
FLAG 128 -48 0
FLAG 160 -32 -5
FLAG 160 -96 +5
FLAG 688 -160 0
FLAG 912 -656 0
FLAG 1552 -256 0
FLAG 1632 -256 0
FLAG 1456 -256 0
SYMBOL Opamps\\UniversalOpamp2 -96 -80 R0
SYMATTR InstName U1
SYMBOL voltage 400 192 R0
WINDOW 123 0 0 Left 2
WINDOW 39 0 0 Left 2
SYMATTR InstName V1
SYMATTR Value 5
SYMBOL voltage 496 192 R0
WINDOW 123 0 0 Left 2
WINDOW 39 0 0 Left 2
SYMATTR InstName V2
SYMATTR Value -5
SYMBOL Opamps\\UniversalOpamp2 -96 -528 R0
SYMATTR InstName U2
SYMBOL voltage -528 -32 R0
WINDOW 123 0 0 Left 2
WINDOW 39 0 0 Left 2
SYMATTR InstName V3
SYMATTR Value PWL file=test1.txt
SYMBOL Digital\\and 496 -224 R0
WINDOW 3 0 0 Invisible 2
SYMATTR Value Vhigh=5 Vlow=0
SYMATTR InstName A1
SYMBOL res -64 -544 R0
SYMATTR InstName R1
SYMATTR Value 500K
SYMBOL res -176 -416 R180
WINDOW 0 36 76 Left 2
WINDOW 3 36 40 Left 2
SYMATTR InstName R2
SYMATTR Value 100K
SYMBOL voltage -192 -448 R0
WINDOW 123 0 0 Left 2
WINDOW 39 0 0 Left 2
SYMATTR InstName V5
SYMATTR Value 1
SYMBOL res -176 32 R180
WINDOW 0 36 76 Left 2
WINDOW 3 36 40 Left 2
SYMATTR InstName R3
SYMATTR Value 100K
SYMBOL voltage -192 0 R0
WINDOW 123 0 0 Left 2
WINDOW 39 0 0 Left 2
SYMATTR InstName V6
SYMATTR Value -1
SYMBOL res -64 -96 R0
SYMATTR InstName R4
SYMATTR Value 500K
SYMBOL Opamps\\UniversalOpamp2 160 -64 R0
SYMATTR InstName U3
SYMBOL res 112 -96 R90
WINDOW 0 0 56 VBottom 2
WINDOW 3 32 56 VTop 2
SYMATTR InstName R5
SYMATTR Value 100K
SYMBOL res 224 -176 R90
WINDOW 0 0 56 VBottom 2
WINDOW 3 32 56 VTop 2
SYMATTR InstName R6
SYMATTR Value 100K
SYMBOL nmos 640 -256 R0
SYMATTR InstName M1
SYMATTR Value Si7540DP_N
SYMBOL res 928 -640 R180
WINDOW 0 36 76 Left 2
WINDOW 3 36 40 Left 2
SYMATTR InstName R9
SYMATTR Value 500K
SYMBOL memristor_with_state 592 -784 R270
WINDOW 3 68 0 VCenter 0
SYMATTR Value Voff=1 Von=1 TAU=0.1 Ron=100k Roff=500k
SYMATTR SpiceModel MEM_KNOWM
SYMATTR InstName U4
SYMBOL MemristiveBrain\\amplitude_filter 1552 -384 R0
SYMATTR InstName U5
TEXT -560 312 Left 2 !.tran .25
