Version 4
SHEET 1 880 680
WIRE 304 -128 224 -128
WIRE 560 -128 304 -128
WIRE 224 -112 224 -128
WIRE 304 -112 304 -128
WIRE 560 -96 560 -128
WIRE 304 0 304 -32
WIRE 352 0 304 0
WIRE 496 0 416 0
WIRE 304 32 304 0
WIRE 496 48 496 0
WIRE 112 80 -16 80
WIRE 144 80 112 80
WIRE 224 80 224 -32
WIRE 224 80 208 80
WIRE 240 80 224 80
WIRE 112 112 112 80
WIRE -16 144 -16 80
WIRE 304 176 304 128
WIRE 496 176 496 112
FLAG -16 224 0
FLAG 560 -16 0
FLAG 496 176 0
FLAG 304 176 0
FLAG 112 176 0
SYMBOL cap 96 112 R0
SYMATTR InstName C1
SYMATTR Value 1µ
SYMBOL cap 208 64 R90
WINDOW 0 0 32 VBottom 2
WINDOW 3 32 32 VTop 2
SYMATTR InstName C2
SYMATTR Value 15µ
SYMBOL res 208 -128 R0
SYMATTR InstName R1
SYMATTR Value 10K
SYMBOL res 288 -128 R0
SYMATTR InstName R2
SYMATTR Value 10K
SYMBOL npn 240 32 R0
SYMATTR InstName Q1
SYMBOL cap 416 -16 R90
WINDOW 0 0 32 VBottom 2
WINDOW 3 32 32 VTop 2
SYMATTR InstName C3
SYMATTR Value 0.1µ
SYMBOL schottky 512 112 R180
WINDOW 0 24 64 Left 2
WINDOW 3 24 0 Left 2
SYMATTR InstName D1
SYMATTR Value 1N5817
SYMATTR Description Diode
SYMATTR Type diode
SYMBOL voltage 560 -112 R0
WINDOW 123 0 0 Left 0
WINDOW 39 0 0 Left 0
SYMATTR InstName V1
SYMATTR Value 0.8
SYMBOL voltage -16 128 R0
WINDOW 123 0 0 Left 0
WINDOW 39 0 0 Left 0
SYMATTR InstName V2
SYMATTR Value 5
TEXT -50 248 Left 2 !.tran 1
