Version 4
SHEET 1 1116 744
WIRE 128 -448 112 -448
WIRE 256 -448 208 -448
WIRE -112 -352 -160 -352
WIRE -64 -352 -112 -352
WIRE 0 -352 -64 -352
WIRE 112 -352 112 -448
WIRE 112 -352 80 -352
WIRE 128 -352 112 -352
WIRE -224 -336 -256 -336
WIRE 256 -336 256 -448
WIRE 256 -336 192 -336
WIRE -256 -208 -256 -336
WIRE -224 -208 -256 -208
WIRE -112 -208 -112 -352
WIRE -112 -208 -144 -208
WIRE 112 80 96 80
WIRE 240 80 192 80
WIRE -128 176 -176 176
WIRE -80 176 -128 176
WIRE -16 176 -80 176
WIRE 96 176 96 80
WIRE 96 176 64 176
WIRE 112 176 96 176
WIRE -240 192 -272 192
WIRE 240 192 240 80
WIRE 240 192 176 192
WIRE -272 320 -272 192
WIRE -240 320 -272 320
WIRE -128 320 -128 176
WIRE -128 320 -160 320
WIRE 576 336 496 336
WIRE 768 336 672 336
WIRE 880 336 848 336
WIRE 496 560 496 336
WIRE 544 560 496 560
WIRE 880 560 880 336
FLAG -208 144 +5
FLAG -272 480 0
FLAG 112 208 0
FLAG 144 160 +5
FLAG -80 176 hposnorm
FLAG 240 192 hposinv
FLAG -864 48 0
FLAG -864 -32 phebb
FLAG -192 -384 +5
FLAG -256 -48 0
FLAG 128 -320 0
FLAG 160 -368 +5
FLAG -64 -352 hnegnorm
FLAG 256 -336 hneginv
FLAG -240 160 phebb
FLAG -224 -368 phebb
FLAG 544 -224 +5
FLAG 640 -224 -5
FLAG 544 -144 0
FLAG 640 -144 0
FLAG 160 -304 -5
FLAG -192 -320 -5
FLAG -208 208 -5
FLAG 144 224 -5
FLAG -1056 224 0
FLAG -1056 144 0
FLAG 656 656 0
FLAG 880 560 0
FLAG 688 496 -5
FLAG 624 496 +5
FLAG 544 592 phebb
FLAG 544 528 +5
FLAG 544 624 +5
SYMBOL memristor_with_state 624 336 R270
WINDOW 3 68 0 VCenter 0
SYMATTR Value Voff=1 Von=-1 TAU=500 Ron=100 Roff=500k
SYMATTR InstName U1
SYMBOL Opamps\\UniversalOpamp2 -208 176 R0
SYMATTR InstName U2
SYMBOL res -144 304 R90
WINDOW 0 0 56 VBottom 2
WINDOW 3 32 56 VTop 2
SYMATTR InstName R2
SYMATTR Value 5Meg
SYMBOL res -256 416 R180
WINDOW 0 36 76 Left 2
WINDOW 3 36 40 Left 2
SYMATTR InstName R3
SYMATTR Value 100K
SYMBOL voltage -272 384 R0
WINDOW 123 0 0 Left 2
WINDOW 39 0 0 Left 2
SYMATTR InstName V2
SYMATTR Value 1
SYMBOL Opamps\\UniversalOpamp2 144 192 R0
SYMATTR InstName U3
SYMBOL res 80 160 R90
WINDOW 0 0 56 VBottom 2
WINDOW 3 32 56 VTop 2
SYMATTR InstName R4
SYMATTR Value 100K
SYMBOL res 208 64 R90
WINDOW 0 0 56 VBottom 2
WINDOW 3 32 56 VTop 2
SYMATTR InstName R5
SYMATTR Value 100K
SYMBOL voltage -864 -48 R0
WINDOW 123 0 0 Left 2
WINDOW 39 0 0 Left 2
SYMATTR InstName V3
SYMATTR Value PWL file=test2.txt
SYMBOL Opamps\\UniversalOpamp2 -192 -352 R0
SYMATTR InstName U4
SYMBOL res -128 -224 R90
WINDOW 0 0 56 VBottom 2
WINDOW 3 32 56 VTop 2
SYMATTR InstName R1
SYMATTR Value 5Meg
SYMBOL res -240 -112 R180
WINDOW 0 36 76 Left 2
WINDOW 3 36 40 Left 2
SYMATTR InstName R6
SYMATTR Value 100K
SYMBOL voltage -256 -144 R0
WINDOW 123 0 0 Left 2
WINDOW 39 0 0 Left 2
SYMATTR InstName V1
SYMATTR Value -1
SYMBOL Opamps\\UniversalOpamp2 160 -336 R0
SYMATTR InstName U5
SYMBOL res 96 -368 R90
WINDOW 0 0 56 VBottom 2
WINDOW 3 32 56 VTop 2
SYMATTR InstName R7
SYMATTR Value 100K
SYMBOL res 224 -464 R90
WINDOW 0 0 56 VBottom 2
WINDOW 3 32 56 VTop 2
SYMATTR InstName R8
SYMATTR Value 100K
SYMBOL voltage 544 -240 R0
WINDOW 123 0 0 Left 2
WINDOW 39 0 0 Left 2
SYMATTR InstName V4
SYMATTR Value 5
SYMBOL voltage 640 -240 R0
WINDOW 123 0 0 Left 2
WINDOW 39 0 0 Left 2
SYMATTR InstName V5
SYMATTR Value -5
SYMBOL voltage -1056 128 R0
WINDOW 123 0 0 Left 2
WINDOW 39 0 0 Left 2
SYMATTR InstName V6
SYMATTR Value PWL(0 0 0.1 0 +1n 2 0.2 2 +1n -2 0.3 -2 +1n 1.5 0.5 -1.5 1 1.75)
SYMBOL res 864 320 R90
WINDOW 0 0 56 VBottom 2
WINDOW 3 32 56 VTop 2
SYMATTR InstName R9
SYMATTR Value 100K
SYMBOL ADG1236 656 576 R0
SYMATTR InstName U6
TEXT -568 336 Left 2 !.tran 3
