Version 4
SHEET 1 1268 884
WIRE 816 -208 -192 -208
WIRE 880 -208 816 -208
WIRE 1024 -208 976 -208
WIRE 1024 -112 1024 -208
WIRE -192 32 -192 -208
WIRE 208 32 -192 32
WIRE 288 48 272 48
WIRE 608 48 288 48
WIRE 176 64 144 64
WIRE 208 64 176 64
WIRE 176 128 176 64
WIRE 288 128 176 128
WIRE 144 192 144 144
WIRE 144 208 144 192
WIRE 1024 320 1024 -112
WIRE 608 384 608 48
WIRE 800 384 608 384
WIRE 800 400 704 400
WIRE 976 400 944 400
WIRE 464 416 448 416
WIRE 592 416 544 416
WIRE 944 432 944 400
WIRE 944 432 864 432
WIRE -192 480 -192 32
WIRE 208 480 -192 480
WIRE 288 496 272 496
WIRE 352 496 288 496
WIRE 448 496 448 416
WIRE 448 496 432 496
WIRE 464 496 448 496
WIRE 176 512 144 512
WIRE 208 512 176 512
WIRE 592 512 592 416
WIRE 592 512 528 512
WIRE 704 512 704 400
WIRE 704 512 592 512
WIRE -192 544 -192 480
WIRE -192 560 -192 544
WIRE 176 576 176 512
WIRE 288 576 176 576
WIRE 144 624 144 592
FLAG -192 544 inp
FLAG 944 400 norm
FLAG 464 528 0
FLAG 1024 416 0
FLAG 144 624 vlow
FLAG 496 480 +5V
FLAG 240 464 +5V
FLAG 240 16 +5V
FLAG 240 528 -5V
FLAG 496 544 -5V
FLAG 240 80 -5V
FLAG 1024 -112 mem-
FLAG 816 -208 mem+
FLAG 144 192 vhigh
SYMBOL Opamps\\UniversalOpamp2 240 496 R0
SYMATTR InstName U1
SYMBOL Opamps\\UniversalOpamp2 240 48 R0
SYMATTR InstName U2
SYMBOL Digital\\and 832 352 R0
WINDOW 3 0 0 Invisible 2
SYMATTR Value Vhigh=5 Vlow=0
SYMATTR InstName A1
SYMBOL res 272 32 R0
SYMATTR InstName R1
SYMATTR Value 500K
SYMBOL res 160 160 R180
WINDOW 0 36 76 Left 2
WINDOW 3 36 40 Left 2
SYMATTR InstName R2
SYMATTR Value 100K
SYMBOL res 160 608 R180
WINDOW 0 36 76 Left 2
WINDOW 3 36 40 Left 2
SYMATTR InstName R3
SYMATTR Value 100K
SYMBOL res 272 480 R0
SYMATTR InstName R4
SYMATTR Value 500K
SYMBOL Opamps\\UniversalOpamp2 496 512 R0
SYMATTR InstName U3
SYMBOL res 448 480 R90
WINDOW 0 0 56 VBottom 2
WINDOW 3 32 56 VTop 2
SYMATTR InstName R5
SYMATTR Value 100K
SYMBOL res 560 400 R90
WINDOW 0 0 56 VBottom 2
WINDOW 3 32 56 VTop 2
SYMATTR InstName R6
SYMATTR Value 100K
SYMBOL nmos 976 320 R0
SYMATTR InstName M1
SYMATTR Value Si7540DP_N
